-------------------------------------------------------
          Amber 24 PMEMD                              2024
          -------------------------------------------------------

  [-O]verwriting output

File Assignments:

 Here is the input file:

MD explicit solvent heavy atom minimal rest shake dt 0.001, 10 ps, dt=.001
&cntrl
  imin = 0, nstlim = 10000, dt=0.001,
  ntx = 5, irest = 1,
  ntwx = 1000, ioutfm = 1, ntpr = 50, ntwr = 500,
  iwrap = 1, nscm = 0,
  ntc = 2, ntf = 1, ntb = 2, cut = 8.0,
  ntt = 1, tautp = 1.0, temp0 = 310.0, tempi = 310.0,
  ntp = 1, taup = 1.0,
  igb = 0, saltcon = 0.0,
  ntr = 1, restraintmask = ':275-1 & !@H=', restraint_wt = 0.5,
&end

Note: ig = -1. Setting random seed to   601054 based on wallclock time in
      microseconds.

--------------------------------------------------------------------------------
   1.  RESOURCE   USE:
--------------------------------------------------------------------------------

 getting box info from netcdf restart file
 NATOM  =   45940 NTYPES =      24 NBONH =   43708 MBONA  =    2269
 NTHETH =    5227 MTHETA =    3061 NPHIH =   10288 MPHIA  =    9823
 NHPARM =       0 NPARM  =       0 NNB   =   80272 NRES   =   14087
 NBONA  =    2269 NTHETA =    3061 NPHIA =    9823 NUMBND =      71
 NUMANG =     156 NPTRA  =     172 NATYP =      40 NPHB   =       0
 IFBOX  =       2 NMXRS  =      36 IFCAP =       0 NEXTRA =       0
 NCOPY  =       0

     BOX TYPE: TRUNCATED OCTAHEDRON

--------------------------------------------------------------------------------
   2.  CONTROL  DATA  FOR  THE  RUN
--------------------------------------------------------------------------------

default_name

General flags:
     imin    =       0, nmropt  =       0

Nature and format of input:
     ntx     =       5, irest   =       1, ntrx    =       1

Nature and format of output:
     ntxo    =       2, ntpr    =      50, ntrx    =       1, ntwr    =     500
     iwrap   =       1, ntwx    =    1000, ntwv    =       0, ntwe    =       0
     ioutfm  =       1, ntwprt  =       0, idecomp =       0, rbornstat=      0

Potential function:
     ntf     =       1, ntb     =       2, igb     =       0, nsnb    =      25
     ipol    =       0, gbsa    =       0, iesp    =       0
     dielc   =   1.00000, cut     =   8.00000, intdiel =   1.00000

Frozen or restrained atoms:
     ibelly  =       0, ntr     =       1
     restraint_wt =   0.50000

Molecular dynamics:
     nstlim  =     10000, nscm    =         0, nrespa  =         1
     t       =   0.00000, dt      =   0.00100, vlimit  =  -1.00000

Berendsen (weak-coupling) temperature regulation:
     temp0   = 310.00000, tempi   = 310.00000, tautp   =   1.00000

Pressure regulation:
     ntp     =       1
     pres0   =   1.00000, comp    =  44.60000, taup    =   1.00000

SHAKE:
     ntc     =       2, jfastw  =       0
     tol     =   0.00001

Ewald parameters:
     verbose =       0, ew_type =       0, nbflag  =       1, use_pme =       1
     vdwmeth =       1, eedmeth =       1, netfrc  =       1
     Box X =   84.285   Box Y =   84.285   Box Z =   84.285
     Alpha =  109.471   Beta  =  109.471   Gamma =  109.471
     NFFT1 =   96       NFFT2 =   96       NFFT3 =   96
     Cutoff=    8.000   Tol   =0.100E-04
     Ewald Coefficient =  0.34864
     Interpolation order =    4

    LOADING THE CONSTRAINED ATOMS AS GROUPS

   5.  REFERENCE ATOM COORDINATES

  default_name
     Mask :275-1 & !@H=; matches     0 atoms

--------------------------------------------------------------------------------
   3.  ATOMIC COORDINATES AND VELOCITIES
--------------------------------------------------------------------------------

default_name
 begin time read from input coords =    10.000 ps

 Number of triangulated 3-point waters found:    13808

     Sum of charges from parm topology file =   0.00000283
     Forcing neutrality...

--------------------------------------------------------------------------------
   4.  RESULTS
 NSTEP =       50   TIME(PS) =      10.050  TEMP(K) =   307.38  PRESS =    56.1
 Etot   =   -109701.6478  EKtot   =     28742.4316  EPtot      =   -138444.0794
 BOND   =       864.5807  ANGLE   =      2284.6804  DIHED      =      3650.1721
 1-4 NB =      1073.9946  1-4 EEL =     12865.3313  VDWAALS    =     16849.4191
 EELEC  =   -176032.2575  EHBOND  =         0.0000  RESTRAINT  =         0.0000
 EKCMT  =     12577.7654  VIRIAL  =     12019.2769  VOLUME     =    460876.7278
                                                    Density    =         1.0107
 ------------------------------------------------------------------------------

      A V E R A G E S   O V E R     200 S T E P S

 NSTEP =    10000   TIME(PS) =      20.000  TEMP(K) =   308.86  PRESS =    13.5
 Etot   =   -108960.7023  EKtot   =     28880.9839  EPtot      =   -137841.6861
 BOND   =       852.1105  ANGLE   =      2346.9107  DIHED      =      3648.0641
 1-4 NB =      1072.4811  1-4 EEL =     12849.0870  VDWAALS    =     16688.1021
 EELEC  =   -175298.4415  EHBOND  =         0.0000  RESTRAINT  =         0.0000
 EKCMT  =     12696.0506  VIRIAL  =     12561.3950  VOLUME     =    462166.0581
                                                    Density    =         1.0079
 ------------------------------------------------------------------------------

      R M S  F L U C T U A T I O N S

 NSTEP =    10000   TIME(PS) =      20.000  TEMP(K) =     1.34  PRESS =   100.6
 Etot   =       289.2122  EKtot   =       125.4167  EPtot      =       235.9502
 BOND   =        21.7532  ANGLE   =        31.9510  DIHED      =        19.5960
 1-4 NB =        11.3084  1-4 EEL =        33.4489  VDWAALS    =       154.5535
 EELEC  =       319.0355  EHBOND  =         0.0000  RESTRAINT  =         0.0000
 EKCMT  =        86.2618  VIRIAL  =      1027.8247  VOLUME     =       672.0154
                                                    Density    =         0.0015
 ------------------------------------------------------------------------------
