-------------------------------------------------------
          Amber 24 PMEMD                              2024
          -------------------------------------------------------

  [-O]verwriting output

File Assignments:

 Here is the input file:

MD explicit solvent heavy atom low rest shake dt 0.001
&cntrl
  imin = 0, nstlim = 10000, dt=0.001,
  ntx = 1, irest = 0, ig = -1,
  ntwx = 1000, ioutfm = 1, ntpr = 50, ntwr = 500,
  iwrap = 1, nscm = 0,
  ntc = 2, ntf = 1, ntb = 2, cut = 8.0,
  ntt = 1, tautp = 1.0, temp0 = 310.0, tempi = 310.0,
  ntp = 1, taup = 1.0,
  igb = 0, saltcon = 0.0,
  ntr = 1, restraintmask = ':275-1 & !@H=', restraint_wt = 1.0,
&end

Note: ig = -1. Setting random seed to   898741 based on wallclock time in
      microseconds.

--------------------------------------------------------------------------------
   1.  RESOURCE   USE:
--------------------------------------------------------------------------------

 getting box info from netcdf restart file
 NATOM  =   45940 NTYPES =      24 NBONH =   43708 MBONA  =    2269
 NTHETH =    5227 MTHETA =    3061 NPHIH =   10288 MPHIA  =    9823
 NHPARM =       0 NPARM  =       0 NNB   =   80272 NRES   =   14087
 NBONA  =    2269 NTHETA =    3061 NPHIA =    9823 NUMBND =      71
 NUMANG =     156 NPTRA  =     172 NATYP =      40 NPHB   =       0
 IFBOX  =       2 NMXRS  =      36 IFCAP =       0 NEXTRA =       0
 NCOPY  =       0

     BOX TYPE: TRUNCATED OCTAHEDRON

--------------------------------------------------------------------------------
   2.  CONTROL  DATA  FOR  THE  RUN
--------------------------------------------------------------------------------

default_name

General flags:
     imin    =       0, nmropt  =       0

Nature and format of input:
     ntx     =       1, irest   =       0, ntrx    =       1

Nature and format of output:
     ntxo    =       2, ntpr    =      50, ntrx    =       1, ntwr    =     500
     iwrap   =       1, ntwx    =    1000, ntwv    =       0, ntwe    =       0
     ioutfm  =       1, ntwprt  =       0, idecomp =       0, rbornstat=      0

Potential function:
     ntf     =       1, ntb     =       2, igb     =       0, nsnb    =      25
     ipol    =       0, gbsa    =       0, iesp    =       0
     dielc   =   1.00000, cut     =   8.00000, intdiel =   1.00000

Frozen or restrained atoms:
     ibelly  =       0, ntr     =       1
     restraint_wt =   1.00000

Molecular dynamics:
     nstlim  =     10000, nscm    =         0, nrespa  =         1
     t       =   0.00000, dt      =   0.00100, vlimit  =  -1.00000

Berendsen (weak-coupling) temperature regulation:
     temp0   = 310.00000, tempi   = 310.00000, tautp   =   1.00000

Pressure regulation:
     ntp     =       1
     pres0   =   1.00000, comp    =  44.60000, taup    =   1.00000

SHAKE:
     ntc     =       2, jfastw  =       0
     tol     =   0.00001

Ewald parameters:
     verbose =       0, ew_type =       0, nbflag  =       1, use_pme =       1
     vdwmeth =       1, eedmeth =       1, netfrc  =       1
     Box X =   87.725   Box Y =   87.725   Box Z =   87.725
     Alpha =  109.471   Beta  =  109.471   Gamma =  109.471
     NFFT1 =   96       NFFT2 =   96       NFFT3 =   96
     Cutoff=    8.000   Tol   =0.100E-04
     Ewald Coefficient =  0.34864
     Interpolation order =    4

    LOADING THE CONSTRAINED ATOMS AS GROUPS

   5.  REFERENCE ATOM COORDINATES

  default_name
     Mask :275-1 & !@H=; matches     0 atoms

--------------------------------------------------------------------------------
   3.  ATOMIC COORDINATES AND VELOCITIES
--------------------------------------------------------------------------------

default_name
 begin time read from input coords =     0.000 ps

 Number of triangulated 3-point waters found:    13808

     Sum of charges from parm topology file =   0.00000283
     Forcing neutrality...

--------------------------------------------------------------------------------
   4.  RESULTS
 NSTEP =        0   TIME(PS) =       0.000  TEMP(K) =   452.88  PRESS = -5233.7
 Etot   =   -141322.6966  EKtot   =     42348.7900  EPtot      =   -183671.4865
 BOND   =     13448.8427  ANGLE   =       569.6532  DIHED      =      3166.4344
 1-4 NB =       910.3085  1-4 EEL =     12881.6604  VDWAALS    =     29197.5596
 EELEC  =   -243845.9453  EHBOND  =         0.0000  RESTRAINT  =         0.0000
 EKCMT  =     12682.2436  VIRIAL  =     71409.2221  VOLUME     =    519694.8519
                                                    Density    =         0.8963
 ------------------------------------------------------------------------------

      A V E R A G E S   O V E R     200 S T E P S

 NSTEP =    10000   TIME(PS) =      10.000  TEMP(K) =   275.47  PRESS =  -270.7
 Etot   =   -117450.7232  EKtot   =     25759.0446  EPtot      =   -143209.7678
 BOND   =       780.1620  ANGLE   =      2155.0971  DIHED      =      3594.5950
 1-4 NB =      1058.3060  1-4 EEL =     12878.8559  VDWAALS    =     18606.3117
 EELEC  =   -182283.0955  EHBOND  =         0.0000  RESTRAINT  =         0.0000
 EKCMT  =     11371.9112  VIRIAL  =     14236.7199  VOLUME     =    468146.9913
                                                    Density    =         0.9958
 ------------------------------------------------------------------------------

      R M S  F L U C T U A T I O N S

 NSTEP =    10000   TIME(PS) =      10.000  TEMP(K) =    34.62  PRESS =   483.0
 Etot   =      7874.7154  EKtot   =      3237.5097  EPtot      =      4679.6077
 BOND   =        94.2861  ANGLE   =       220.2816  DIHED      =        67.1748
 1-4 NB =        23.9571  1-4 EEL =        31.7856  VDWAALS    =      1851.7139
 EELEC  =      6099.6150  EHBOND  =         0.0000  RESTRAINT  =         0.0000
 EKCMT  =      1314.6350  VIRIAL  =      4112.0370  VOLUME     =     13893.1205
                                                    Density    =         0.0281
 ------------------------------------------------------------------------------
