-------------------------------------------------------
          Amber 24 PMEMD                              2024
          -------------------------------------------------------

  [-O]verwriting output

File Assignments:

 Here is the input file:

MD explicit solvent heavy atom rest shake dt 0.001
&cntrl
  imin = 0, nstlim = 30000, dt=0.001,
  ntx = 1, irest = 0, ig = -1,
  ntwx = 1500, ioutfm = 1, ntpr = 50, ntwr = 500,
  iwrap = 1, nscm = 0,
  ntc = 2, ntf = 1, ntb = 1, cut = 8.0,
  ntt = 1, tautp = 0.5, temp0 = 310.0, tempi = 310.0,
  ntp = 0, taup = 0.5,
  igb = 0, saltcon = 0.0,
  ntr = 1, restraintmask = ':275-1 & !@H=', restraint_wt = 5.0,
&end

Note: ig = -1. Setting random seed to   734473 based on wallclock time in
      microseconds.

--------------------------------------------------------------------------------
   1.  RESOURCE   USE:
--------------------------------------------------------------------------------

 getting box info from netcdf restart file
 NATOM  =   45940 NTYPES =      24 NBONH =   43708 MBONA  =    2269
 NTHETH =    5227 MTHETA =    3061 NPHIH =   10288 MPHIA  =    9823
 NHPARM =       0 NPARM  =       0 NNB   =   80272 NRES   =   14087
 NBONA  =    2269 NTHETA =    3061 NPHIA =    9823 NUMBND =      71
 NUMANG =     156 NPTRA  =     172 NATYP =      40 NPHB   =       0
 IFBOX  =       2 NMXRS  =      36 IFCAP =       0 NEXTRA =       0
 NCOPY  =       0

     BOX TYPE: TRUNCATED OCTAHEDRON

--------------------------------------------------------------------------------
   2.  CONTROL  DATA  FOR  THE  RUN
--------------------------------------------------------------------------------

default_name

General flags:
     imin    =       0, nmropt  =       0

Nature and format of input:
     ntx     =       1, irest   =       0, ntrx    =       1

Nature and format of output:
     ntxo    =       2, ntpr    =      50, ntrx    =       1, ntwr    =     500
     iwrap   =       1, ntwx    =    1500, ntwv    =       0, ntwe    =       0
     ioutfm  =       1, ntwprt  =       0, idecomp =       0, rbornstat=      0

Potential function:
     ntf     =       1, ntb     =       1, igb     =       0, nsnb    =      25
     ipol    =       0, gbsa    =       0, iesp    =       0
     dielc   =   1.00000, cut     =   8.00000, intdiel =   1.00000

Frozen or restrained atoms:
     ibelly  =       0, ntr     =       1
     restraint_wt =   5.00000

Molecular dynamics:
     nstlim  =     30000, nscm    =         0, nrespa  =         1
     t       =   0.00000, dt      =   0.00100, vlimit  =  -1.00000

Berendsen (weak-coupling) temperature regulation:
     temp0   = 310.00000, tempi   = 310.00000, tautp   =   0.50000

SHAKE:
     ntc     =       2, jfastw  =       0
     tol     =   0.00001

Ewald parameters:
     verbose =       0, ew_type =       0, nbflag  =       1, use_pme =       1
     vdwmeth =       1, eedmeth =       1, netfrc  =       1
     Box X =   87.725   Box Y =   87.725   Box Z =   87.725
     Alpha =  109.471   Beta  =  109.471   Gamma =  109.471
     NFFT1 =   96       NFFT2 =   96       NFFT3 =   96
     Cutoff=    8.000   Tol   =0.100E-04
     Ewald Coefficient =  0.34864
     Interpolation order =    4

    LOADING THE CONSTRAINED ATOMS AS GROUPS

   5.  REFERENCE ATOM COORDINATES

  default_name
     Mask :275-1 & !@H=; matches     0 atoms

--------------------------------------------------------------------------------
   3.  ATOMIC COORDINATES AND VELOCITIES
--------------------------------------------------------------------------------

default_name
 begin time read from input coords =     0.000 ps

 Number of triangulated 3-point waters found:    13808

     Sum of charges from parm topology file =   0.00000283
     Forcing neutrality...

--------------------------------------------------------------------------------
   4.  RESULTS
 NSTEP =        0   TIME(PS) =       0.000  TEMP(K) =   454.12  PRESS =     0.0
 Etot   =   -134047.0576  EKtot   =     42464.4427  EPtot      =   -176511.5003
 BOND   =     12644.6711  ANGLE   =       592.1578  DIHED      =      3216.4704
 1-4 NB =       922.9303  1-4 EEL =     12847.7135  VDWAALS    =     28028.8806
 EELEC  =   -234764.3240  EHBOND  =         0.0000  RESTRAINT  =         0.0000
 ------------------------------------------------------------------------------

      A V E R A G E S   O V E R     600 S T E P S

 NSTEP =    30000   TIME(PS) =      30.000  TEMP(K) =   304.79  PRESS =     0.0
 Etot   =   -105649.5590  EKtot   =     28501.0215  EPtot      =   -134150.5804
 BOND   =       856.3635  ANGLE   =      2335.4423  DIHED      =      3639.3381
 1-4 NB =      1061.5578  1-4 EEL =     12838.5311  VDWAALS    =     15731.6109
 EELEC  =   -170613.4241  EHBOND  =         0.0000  RESTRAINT  =         0.0000
 ------------------------------------------------------------------------------

      R M S  F L U C T U A T I O N S

 NSTEP =    30000   TIME(PS) =      30.000  TEMP(K) =    17.30  PRESS =     0.0
 Etot   =      4045.3768  EKtot   =      1618.0443  EPtot      =      2448.5594
 BOND   =        56.2320  ANGLE   =       121.3239  DIHED      =        34.3515
 1-4 NB =        17.0610  1-4 EEL =        36.3180  VDWAALS    =       895.8705
 EELEC  =      3092.4284  EHBOND  =         0.0000  RESTRAINT  =         0.0000
 ------------------------------------------------------------------------------
