-------------------------------------------------------
          Amber 24 PMEMD                              2024
          -------------------------------------------------------

  [-O]verwriting output

File Assignments:

 Here is the input file:

MD explicit solvent heavy atom minimal BB rest shake dt 0.001
&cntrl
  imin = 0, nstlim = 20000, dt=0.001,
  ntx = 5, irest = 1,
  ntwx = 1000, ioutfm = 1, ntpr = 50, ntwr = 500,
  iwrap = 1, nscm = 0,
  ntc = 2, ntf = 1, ntb = 2, cut = 8.0,
  ntt = 1, tautp = 1.0, temp0 = 310.0, tempi = 310.0,
  ntp = 1, taup = 1.0,
  igb = 0, saltcon = 0.0,
  ntr = 1, restraintmask = ":275-1@H,N,CA,HA,C,O", restraint_wt = 0.5,
&end

Note: ig = -1. Setting random seed to     7316 based on wallclock time in
      microseconds.

--------------------------------------------------------------------------------
   1.  RESOURCE   USE:
--------------------------------------------------------------------------------

 getting box info from netcdf restart file
 NATOM  =   45940 NTYPES =      24 NBONH =   43708 MBONA  =    2269
 NTHETH =    5227 MTHETA =    3061 NPHIH =   10288 MPHIA  =    9823
 NHPARM =       0 NPARM  =       0 NNB   =   80272 NRES   =   14087
 NBONA  =    2269 NTHETA =    3061 NPHIA =    9823 NUMBND =      71
 NUMANG =     156 NPTRA  =     172 NATYP =      40 NPHB   =       0
 IFBOX  =       2 NMXRS  =      36 IFCAP =       0 NEXTRA =       0
 NCOPY  =       0

     BOX TYPE: TRUNCATED OCTAHEDRON

--------------------------------------------------------------------------------
   2.  CONTROL  DATA  FOR  THE  RUN
--------------------------------------------------------------------------------

default_name

General flags:
     imin    =       0, nmropt  =       0

Nature and format of input:
     ntx     =       5, irest   =       1, ntrx    =       1

Nature and format of output:
     ntxo    =       2, ntpr    =      50, ntrx    =       1, ntwr    =     500
     iwrap   =       1, ntwx    =    1000, ntwv    =       0, ntwe    =       0
     ioutfm  =       1, ntwprt  =       0, idecomp =       0, rbornstat=      0

Potential function:
     ntf     =       1, ntb     =       2, igb     =       0, nsnb    =      25
     ipol    =       0, gbsa    =       0, iesp    =       0
     dielc   =   1.00000, cut     =   8.00000, intdiel =   1.00000

Frozen or restrained atoms:
     ibelly  =       0, ntr     =       1
     restraint_wt =   0.50000

Molecular dynamics:
     nstlim  =     20000, nscm    =         0, nrespa  =         1
     t       =   0.00000, dt      =   0.00100, vlimit  =  -1.00000

Berendsen (weak-coupling) temperature regulation:
     temp0   = 310.00000, tempi   = 310.00000, tautp   =   1.00000

Pressure regulation:
     ntp     =       1
     pres0   =   1.00000, comp    =  44.60000, taup    =   1.00000

SHAKE:
     ntc     =       2, jfastw  =       0
     tol     =   0.00001

Ewald parameters:
     verbose =       0, ew_type =       0, nbflag  =       1, use_pme =       1
     vdwmeth =       1, eedmeth =       1, netfrc  =       1
     Box X =   84.407   Box Y =   84.407   Box Z =   84.407
     Alpha =  109.471   Beta  =  109.471   Gamma =  109.471
     NFFT1 =   96       NFFT2 =   96       NFFT3 =   96
     Cutoff=    8.000   Tol   =0.100E-04
     Ewald Coefficient =  0.34864
     Interpolation order =    4

    LOADING THE CONSTRAINED ATOMS AS GROUPS

   5.  REFERENCE ATOM COORDINATES

  default_name
     Mask :275-1@H,N,CA,HA,C,O; matches     0 atoms

--------------------------------------------------------------------------------
   3.  ATOMIC COORDINATES AND VELOCITIES
--------------------------------------------------------------------------------

default_name
 begin time read from input coords =    20.000 ps

 Number of triangulated 3-point waters found:    13808

     Sum of charges from parm topology file =   0.00000283
     Forcing neutrality...

--------------------------------------------------------------------------------
   4.  RESULTS
 NSTEP =       50   TIME(PS) =      20.050  TEMP(K) =   310.35  PRESS =   113.9
 Etot   =   -108625.0909  EKtot   =     29021.0098  EPtot      =   -137646.1006
 BOND   =       873.8852  ANGLE   =      2371.2829  DIHED      =      3650.4300
 1-4 NB =      1056.2171  1-4 EEL =     12839.2785  VDWAALS    =     16732.7576
 EELEC  =   -175169.9519  EHBOND  =         0.0000  RESTRAINT  =         0.0000
 EKCMT  =     12704.7543  VIRIAL  =     11565.8245  VOLUME     =    462964.3353
                                                    Density    =         1.0061
 ------------------------------------------------------------------------------

      A V E R A G E S   O V E R     400 S T E P S

 NSTEP =    20000   TIME(PS) =      40.000  TEMP(K) =   309.83  PRESS =     4.7
 Etot   =   -108562.9467  EKtot   =     28972.4347  EPtot      =   -137535.3814
 BOND   =       845.3312  ANGLE   =      2325.3928  DIHED      =      3630.4277
 1-4 NB =      1072.7937  1-4 EEL =     12866.4475  VDWAALS    =     16561.6398
 EELEC  =   -174837.4142  EHBOND  =         0.0000  RESTRAINT  =         0.0000
 EKCMT  =     12763.0356  VIRIAL  =     12716.2648  VOLUME     =    463243.4757
                                                    Density    =         1.0055
 ------------------------------------------------------------------------------

      R M S  F L U C T U A T I O N S

 NSTEP =    20000   TIME(PS) =      40.000  TEMP(K) =     1.12  PRESS =   110.5
 Etot   =        47.9080  EKtot   =       104.4283  EPtot      =       115.8473
 BOND   =        24.2436  ANGLE   =        34.2336  DIHED      =        20.8657
 1-4 NB =        14.0743  1-4 EEL =        32.8609  VDWAALS    =       156.2853
 EELEC  =       216.0264  EHBOND  =         0.0000  RESTRAINT  =         0.0000
 EKCMT  =        80.2734  VIRIAL  =      1107.8096  VOLUME     =       309.6099
                                                    Density    =         0.0007
 ------------------------------------------------------------------------------
