-------------------------------------------------------
          Amber 24 PMEMD                              2024
          -------------------------------------------------------

  [-O]verwriting output

File Assignments:

 Here is the input file:

MD explicit solvent heavy atom no rest shake dt 0.002
&cntrl
  imin = 0, nstlim = 100000, dt=0.002,
  ntx = 5, irest = 1,
  ntwx = 5000, ioutfm = 1, ntpr = 10000, ntwr = 10000,
  iwrap = 1, nscm = 1000,
  ntc = 2, ntf = 1, ntb = 2, cut = 8.0,
  ntt = 1, tautp = 1.0, temp0 = 310.0, tempi = 310.0,
  ntp = 1, taup = 1.0,
  igb = 0, saltcon = 0.0,
  ntr = 0,
&end

Note: ig = -1. Setting random seed to   911021 based on wallclock time in
      microseconds.

--------------------------------------------------------------------------------
   1.  RESOURCE   USE:
--------------------------------------------------------------------------------

 getting box info from netcdf restart file
 NATOM  =   45940 NTYPES =      24 NBONH =   43708 MBONA  =    2269
 NTHETH =    5227 MTHETA =    3061 NPHIH =   10288 MPHIA  =    9823
 NHPARM =       0 NPARM  =       0 NNB   =   80272 NRES   =   14087
 NBONA  =    2269 NTHETA =    3061 NPHIA =    9823 NUMBND =      71
 NUMANG =     156 NPTRA  =     172 NATYP =      40 NPHB   =       0
 IFBOX  =       2 NMXRS  =      36 IFCAP =       0 NEXTRA =       0
 NCOPY  =       0

     BOX TYPE: TRUNCATED OCTAHEDRON

--------------------------------------------------------------------------------
   2.  CONTROL  DATA  FOR  THE  RUN
--------------------------------------------------------------------------------

default_name

General flags:
     imin    =       0, nmropt  =       0

Nature and format of input:
     ntx     =       5, irest   =       1, ntrx    =       1

Nature and format of output:
     ntxo    =       2, ntpr    =   10000, ntrx    =       1, ntwr    =   10000
     iwrap   =       1, ntwx    =    5000, ntwv    =       0, ntwe    =       0
     ioutfm  =       1, ntwprt  =       0, idecomp =       0, rbornstat=      0

Potential function:
     ntf     =       1, ntb     =       2, igb     =       0, nsnb    =      25
     ipol    =       0, gbsa    =       0, iesp    =       0
     dielc   =   1.00000, cut     =   8.00000, intdiel =   1.00000

Frozen or restrained atoms:
     ibelly  =       0, ntr     =       0

Molecular dynamics:
     nstlim  =    100000, nscm    =      1000, nrespa  =         1
     t       =   0.00000, dt      =   0.00200, vlimit  =  -1.00000

Berendsen (weak-coupling) temperature regulation:
     temp0   = 310.00000, tempi   = 310.00000, tautp   =   1.00000

Pressure regulation:
     ntp     =       1
     pres0   =   1.00000, comp    =  44.60000, taup    =   1.00000

SHAKE:
     ntc     =       2, jfastw  =       0
     tol     =   0.00001

Ewald parameters:
     verbose =       0, ew_type =       0, nbflag  =       1, use_pme =       1
     vdwmeth =       1, eedmeth =       1, netfrc  =       1
     Box X =   84.450   Box Y =   84.450   Box Z =   84.450
     Alpha =  109.471   Beta  =  109.471   Gamma =  109.471
     NFFT1 =   96       NFFT2 =   96       NFFT3 =   96
     Cutoff=    8.000   Tol   =0.100E-04
     Ewald Coefficient =  0.34864
     Interpolation order =    4

--------------------------------------------------------------------------------
   3.  ATOMIC COORDINATES AND VELOCITIES
--------------------------------------------------------------------------------

default_name
 begin time read from input coords =    40.000 ps

 Number of triangulated 3-point waters found:    13808

     Sum of charges from parm topology file =   0.00000283
     Forcing neutrality...

--------------------------------------------------------------------------------
   4.  RESULTS
 NSTEP =    10000   TIME(PS) =      60.000  TEMP(K) =   310.74  PRESS =    81.8
 Etot   =   -108115.6054  EKtot   =     29056.2617  EPtot      =   -137171.8671
 BOND   =       869.6594  ANGLE   =      2295.4008  DIHED      =      3627.1959
 1-4 NB =      1050.2014  1-4 EEL =     12869.4434  VDWAALS    =     16744.6211
 EELEC  =   -174628.3891  EHBOND  =         0.0000  RESTRAINT  =         0.0000
 EKCMT  =     12914.7169  VIRIAL  =     12095.5708  VOLUME     =    463622.4939
                                                    Density    =         1.0047
 ------------------------------------------------------------------------------

      A V E R A G E S   O V E R      10 S T E P S

 NSTEP =   100000   TIME(PS) =     240.000  TEMP(K) =   310.26  PRESS =    46.8
 Etot   =   -108108.4888  EKtot   =     29011.3865  EPtot      =   -137119.8754
 BOND   =       861.4359  ANGLE   =      2349.2757  DIHED      =      3620.0417
 1-4 NB =      1063.8446  1-4 EEL =     12858.1086  VDWAALS    =     16551.3012
 EELEC  =   -174423.8831  EHBOND  =         0.0000  RESTRAINT  =         0.0000
 EKCMT  =     12855.1478  VIRIAL  =     12386.6926  VOLUME     =    463850.8356
                                                    Density    =         1.0042
 ------------------------------------------------------------------------------

      R M S  F L U C T U A T I O N S

 NSTEP =   100000   TIME(PS) =     240.000  TEMP(K) =     0.99  PRESS =   102.2
 Etot   =        66.1116  EKtot   =        92.9736  EPtot      =        86.9347
 BOND   =        24.9884  ANGLE   =        33.2550  DIHED      =        12.4498
 1-4 NB =        11.5406  1-4 EEL =        30.8700  VDWAALS    =       118.6679
 EELEC  =       135.0483  EHBOND  =         0.0000  RESTRAINT  =         0.0000
 EKCMT  =        96.6401  VIRIAL  =       987.7359  VOLUME     =       726.5045
                                                    Density    =         0.0016
 ------------------------------------------------------------------------------
